@<TRIPOS>MOLECULE
Structure12
57   56    1
SMALL
USER_CHARGES


@<TRIPOS>ATOM
      1 C1         -0.3229    0.9247    1.8555 C.3       1 UNK         0.0000 
      2 C2          0.2201    0.0233    2.9244 C.3       1 UNK         0.0000 
      3 C3         -0.5463   -1.2661    2.9281 C.3       1 UNK         0.0000 
      4 C4         -1.9949   -0.9859    3.1986 C.3       1 UNK         0.0000 
      5 C5         -2.7613   -2.2753    3.2024 C.3       1 UNK         0.0000 
      6 C6         -4.2099   -1.9951    3.4729 C.2       1 UNK         0.0000 
      7 C7         -5.1723   -2.7834    2.9734 C.2       1 UNK         0.0000 
      8 C8         -4.8357   -3.9743    2.1258 C.3       1 UNK         0.0000 
      9 C9         -5.8858   -5.0300    2.3071 C.2       1 UNK         0.0000 
     10 C10        -5.7691   -5.9658    3.2600 C.2       1 UNK         0.0000 
     11 C11        -4.5842   -5.9912    4.1794 C.3       1 UNK         0.0000 
     12 C12        -3.8594   -7.2954    4.0250 C.3       1 UNK         0.0000 
     13 C13        -2.6745   -7.3208    4.9445 C.3       1 UNK         0.0000 
     14 C14        -3.1390   -7.1718    6.3630 C.3       1 UNK         0.0000 
     15 C15        -1.9541   -7.1972    7.2824 C.3       1 UNK         0.0000 
     16 C16        -2.4187   -7.0482    8.7009 C.3       1 UNK         0.0000 
     17 C17        -3.1435   -5.7440    8.8552 C.3       1 UNK         0.0000 
     18 C18        -3.6080   -5.5950   10.2737 C.2       1 UNK         0.0000 
     19 O19        -4.2342   -4.5894   10.6399 O.co2     1 UNK         0.0000 
     20 O20        -3.3454   -6.5102   11.0681 O.co2     1 UNK         0.0000 
     21 N21        -7.0391   -5.0052    1.4122 N.pl3     1 UNK         0.0000 
     22 O22        -7.8851   -5.8757    1.5767 O.co2     1 UNK         0.0000 
     23 O23        -7.0662   -4.1160    0.5701 O.co2     1 UNK         0.0000 
     24 S24        -7.0151   -7.2185    3.4752 S.3       1 UNK         0.0000 
     25 C25        -7.9238   -6.2085    4.6252 C.3       1 UNK         0.0000 
     26 H26         0.2340    1.8617    1.8527 H         1 UNK         0.0000 
     27 H27        -0.2219    0.4392    0.8848 H         1 UNK         0.0000 
     28 H28        -1.3755    1.1283    2.0520 H         1 UNK         0.0000 
     29 H29         1.2728   -0.1803    2.7278 H         1 UNK         0.0000 
     30 H30         0.1191    0.5089    3.8950 H         1 UNK         0.0000 
     31 H31        -0.4453   -1.7516    1.9575 H         1 UNK         0.0000 
     32 H32        -0.1517   -1.9211    3.7049 H         1 UNK         0.0000 
     33 H33        -2.0959   -0.5003    4.1693 H         1 UNK         0.0000 
     34 H34        -2.3895   -0.3309    2.4219 H         1 UNK         0.0000 
     35 H35        -2.6603   -2.7608    2.2317 H         1 UNK         0.0000 
     36 H36        -2.3667   -2.9303    3.9791 H         1 UNK         0.0000 
     37 H37        -4.4523   -1.1374    4.0834 H         1 UNK         0.0000 
     38 H38        -6.2156   -2.5816    3.1682 H         1 UNK         0.0000 
     39 H39        -4.7979   -3.6756    1.0782 H         1 UNK         0.0000 
     40 H40        -3.8658   -4.3712    2.4256 H         1 UNK         0.0000 
     41 H41        -3.9123   -5.1703    3.9290 H         1 UNK         0.0000 
     42 H42        -4.9217   -5.8829    5.2102 H         1 UNK         0.0000 
     43 H43        -4.5313   -8.1163    4.2755 H         1 UNK         0.0000 
     44 H44        -3.5218   -7.4037    2.9943 H         1 UNK         0.0000 
     45 H45        -2.1478   -8.2685    4.8323 H         1 UNK         0.0000 
     46 H46        -2.0026   -6.4999    4.6941 H         1 UNK         0.0000 
     47 H47        -3.6657   -6.2241    6.4751 H         1 UNK         0.0000 
     48 H48        -3.8109   -7.9927    6.6134 H         1 UNK         0.0000 
     49 H49        -1.4275   -8.1449    7.1702 H         1 UNK         0.0000 
     50 H50        -1.2822   -6.3763    7.0320 H         1 UNK         0.0000 
     51 H51        -3.0906   -7.8691    8.9513 H         1 UNK         0.0000 
     52 H52        -1.5577   -7.0667    9.3690 H         1 UNK         0.0000 
     53 H53        -2.4716   -4.9231    8.6048 H         1 UNK         0.0000 
     54 H54        -4.0045   -5.7256    8.1871 H         1 UNK         0.0000 
     55 H55        -8.8102   -6.7471    4.9602 H         1 UNK         0.0000 
     56 H56        -7.2928   -5.9777    5.4835 H         1 UNK         0.0000 
     57 H57        -8.2249   -5.2821    4.1360 H         1 UNK         0.0000 
@<TRIPOS>BOND
     1    1    2 1    
     2    1   26 1    
     3    1   27 1    
     4    1   28 1    
     5    2    3 1    
     6    2   29 1    
     7    2   30 1    
     8    3    4 1    
     9    3   31 1    
    10    3   32 1    
    11    4    5 1    
    12    4   33 1    
    13    4   34 1    
    14    5    6 1    
    15    5   35 1    
    16    5   36 1    
    17    6    7 2    
    18    6   37 1    
    19    7    8 1    
    20    7   38 1    
    21    8    9 1    
    22    8   39 1    
    23    8   40 1    
    24    9   10 2    
    25    9   21 1    
    26   10   11 1    
    27   10   24 1    
    28   11   12 1    
    29   11   41 1    
    30   11   42 1    
    31   12   13 1    
    32   12   43 1    
    33   12   44 1    
    34   13   14 1    
    35   13   45 1    
    36   13   46 1    
    37   14   15 1    
    38   14   47 1    
    39   14   48 1    
    40   15   16 1    
    41   15   49 1    
    42   15   50 1    
    43   16   17 1    
    44   16   51 1    
    45   16   52 1    
    46   17   18 1    
    47   17   53 1    
    48   17   54 1    
    49   18   19 2    
    50   18   20 1    
    51   21   22 1    
    52   21   23 2    
    53   24   25 1    
    54   25   55 1    
    55   25   56 1    
    56   25   57 1    
@<TRIPOS>SUBSTRUCTURE
     1 UNK         1 GROUP             0       ****    0 ROOT    
