@<TRIPOS>MOLECULE
10NO2LA_his
72   72    1
SMALL
USER_CHARGES


@<TRIPOS>ATOM
      1 C1          0.2426   -0.0935    3.9511 C.3       1 UNK         0.0000 
      2 C2         -1.2304   -0.3483    3.8262 C.3       1 UNK         0.0000 
      3 C3         -1.6938    0.0579    2.4587 C.3       1 UNK         0.0000 
      4 C4         -3.1668   -0.1968    2.3338 C.3       1 UNK         0.0000 
      5 C5         -3.4411   -1.6568    2.5415 C.3       1 UNK         0.0000 
      6 C6         -4.9140   -1.9115    2.4166 C.2       1 UNK         0.0000 
      7 C7         -5.3776   -3.0879    1.9713 C.2       1 UNK         0.0000 
      8 C8         -4.4404   -4.1923    1.5817 C.3       1 UNK         0.0000 
      9 C9         -5.0976   -5.5173    1.8315 C.2       1 UNK         0.0000 
     10 C10        -5.4989   -5.8700    3.0610 C.2       1 UNK         0.0000 
     11 C11        -5.3054   -4.9523    4.2317 C.3       1 UNK         0.0000 
     12 C12        -4.4472   -5.6278    5.2599 C.3       1 UNK         0.0000 
     13 C13        -4.2537   -4.7102    6.4306 C.3       1 UNK         0.0000 
     14 C14        -3.3954   -5.3856    7.4588 C.3       1 UNK         0.0000 
     15 C15        -3.2019   -4.4680    8.6295 C.3       1 UNK         0.0000 
     16 C16        -2.3436   -5.1434    9.6577 C.3       1 UNK         0.0000 
     17 C17        -3.0125   -6.4051   10.1166 C.3       1 UNK         0.0000 
     18 C18        -2.1543   -7.0806   11.1448 C.2       1 UNK         0.0000 
     19 O19        -2.5746   -7.2891   12.2926 O.co2     1 UNK         0.0000 
     20 O20        -1.0108   -7.4236   10.8097 O.co2     1 UNK         0.0000 
     21 N21        -5.2859   -6.4105    0.6920 N.pl3     1 UNK         0.0000 
     22 O22        -4.8900   -6.0097   -0.3958 O.co2     1 UNK         0.0000 
     23 O23        -5.8244   -7.4875    0.9171 O.co2     1 UNK         0.0000 
     24 N24        -6.1386   -7.1596    3.3042 N.pl3     1 UNK         0.0000 
     25 C25        -7.3088   -7.3968    3.9761 C.ar      1 UNK         0.0000 
     26 C26        -7.4712   -8.7733    3.9255 C.ar      1 UNK         0.0000 
     27 N27        -6.4788   -9.3592    3.2715 N.2       1 UNK         0.0000 
     28 C28        -5.6804   -8.3846    2.9001 C.ar      1 UNK         0.0000 
     29 C29        -8.6090   -9.5488    4.5204 C.3       1 UNK         0.0000 
     30 C30        -8.2674   -9.9368    5.9286 C.3       1 UNK         0.0000 
     31 C31        -9.4052  -10.7124    6.5235 C.3       1 UNK         0.0000 
     32 O32       -10.5432   -9.9317    6.5246 O.3       1 UNK         0.0000 
     33 N33        -8.0314   -8.7337    6.7212 N.3       1 UNK         0.0000 
     34 H34         0.5794   -0.3887    4.9449 H         1 UNK         0.0000 
     35 H35         0.7768   -0.6742    3.1991 H         1 UNK         0.0000 
     36 H36         0.4419    0.9674    3.8002 H         1 UNK         0.0000 
     37 H37        -1.4297   -1.4092    3.9772 H         1 UNK         0.0000 
     38 H38        -1.7646    0.2324    4.5783 H         1 UNK         0.0000 
     39 H39        -1.4945    1.1189    2.3077 H         1 UNK         0.0000 
     40 H40        -1.1596   -0.5228    1.7066 H         1 UNK         0.0000 
     41 H41        -3.7010    0.3839    3.0858 H         1 UNK         0.0000 
     42 H42        -3.5035    0.0984    1.3400 H         1 UNK         0.0000 
     43 H43        -2.9069   -2.2375    1.7895 H         1 UNK         0.0000 
     44 H44        -3.1043   -1.9520    3.5353 H         1 UNK         0.0000 
     45 H45        -5.5890   -1.1161    2.6972 H         1 UNK         0.0000 
     46 H46        -6.4384   -3.2714    1.8813 H         1 UNK         0.0000 
     47 H47        -4.1933   -4.1030    0.5238 H         1 UNK         0.0000 
     48 H48        -3.5287   -4.1214    2.1749 H         1 UNK         0.0000 
     49 H49        -4.8194   -4.0355    3.8983 H         1 UNK         0.0000 
     50 H50        -6.2745   -4.7116    4.6688 H         1 UNK         0.0000 
     51 H51        -4.9332   -6.5446    5.5934 H         1 UNK         0.0000 
     52 H52        -3.4781   -5.8685    4.8229 H         1 UNK         0.0000 
     53 H53        -3.7676   -3.7933    6.0972 H         1 UNK         0.0000 
     54 H54        -5.2228   -4.4694    6.8676 H         1 UNK         0.0000 
     55 H55        -3.8815   -6.3025    7.7923 H         1 UNK         0.0000 
     56 H56        -2.4263   -5.6263    7.0218 H         1 UNK         0.0000 
     57 H57        -2.7158   -3.5511    8.2960 H         1 UNK         0.0000 
     58 H58        -4.1710   -4.2272    9.0665 H         1 UNK         0.0000 
     59 H59        -1.3745   -5.3841    9.2207 H         1 UNK         0.0000 
     60 H60        -2.2030   -4.4766   10.5084 H         1 UNK         0.0000 
     61 H61        -3.9816   -6.1644   10.5536 H         1 UNK         0.0000 
     62 H62        -3.1531   -7.0719    9.2659 H         1 UNK         0.0000 
     63 H63        -7.8973   -6.5984    4.4122 H         1 UNK         0.0000 
     64 H64        -4.7548   -8.4677    2.3397 H         1 UNK         0.0000 
     65 H65        -9.5078   -8.9322    4.5213 H         1 UNK         0.0000 
     66 H66        -8.7852  -10.4471    3.9286 H         1 UNK         0.0000 
     67 H67        -7.3686  -10.5534    5.9277 H         1 UNK         0.0000 
     68 H68        -9.5814  -11.6106    5.9317 H         1 UNK         0.0000 
     69 H69        -9.1570  -10.9943    7.5467 H         1 UNK         0.0000 
     70 H70       -11.3566  -10.3709    6.9060 H         1 UNK         0.0000 
     71 H71        -7.8014   -8.9944    7.6695 H         1 UNK         0.0000 
     72 H72        -7.2661   -8.2105    6.3203 H         1 UNK         0.0000 
@<TRIPOS>BOND
     1    1    2 1    
     2    1   34 1    
     3    1   35 1    
     4    1   36 1    
     5    2    3 1    
     6    2   37 1    
     7    2   38 1    
     8    3    4 1    
     9    3   39 1    
    10    3   40 1    
    11    4    5 1    
    12    4   41 1    
    13    4   42 1    
    14    5    6 1    
    15    5   43 1    
    16    5   44 1    
    17    6    7 2    
    18    6   45 1    
    19    7    8 1    
    20    7   46 1    
    21    8    9 1    
    22    8   47 1    
    23    8   48 1    
    24    9   10 2    
    25    9   21 1    
    26   10   11 1    
    27   10   24 1    
    28   11   12 1    
    29   11   49 1    
    30   11   50 1    
    31   12   13 1    
    32   12   51 1    
    33   12   52 1    
    34   13   14 1    
    35   13   53 1    
    36   13   54 1    
    37   14   15 1    
    38   14   55 1    
    39   14   56 1    
    40   15   16 1    
    41   15   57 1    
    42   15   58 1    
    43   16   17 1    
    44   16   59 1    
    45   16   60 1    
    46   17   18 1    
    47   17   61 1    
    48   17   62 1    
    49   18   19 2    
    50   18   20 1    
    51   21   22 2    
    52   21   23 1    
    53   24   25 ar   
    54   24   28 ar   
    55   25   26 ar   
    56   25   63 1    
    57   26   27 ar   
    58   26   29 1    
    59   27   28 ar   
    60   28   64 1    
    61   29   30 1    
    62   29   65 1    
    63   29   66 1    
    64   30   31 1    
    65   30   33 1    
    66   30   67 1    
    67   31   32 1    
    68   31   68 1    
    69   31   69 1    
    70   32   70 1    
    71   33   71 1    
    72   33   72 1    
@<TRIPOS>SUBSTRUCTURE
     1 UNK         1 GROUP             0       ****    0 ROOT    
