@<TRIPOS>MOLECULE
10NO2OA_his
74   74    1
SMALL
USER_CHARGES


@<TRIPOS>ATOM
      1 C1          2.3990   -5.2447    4.5571 C.3       1 UNK         0.0000 
      2 C2          2.1837   -5.6312    3.1238 C.3       1 UNK         0.0000 
      3 C3          0.7626   -6.0716    2.9327 C.3       1 UNK         0.0000 
      4 C4          0.5473   -6.4581    1.4995 C.3       1 UNK         0.0000 
      5 C5         -0.8738   -6.8985    1.3084 C.3       1 UNK         0.0000 
      6 C6         -1.0890   -7.2849   -0.1249 C.3       1 UNK         0.0000 
      7 C7         -2.5101   -7.7253   -0.3160 C.3       1 UNK         0.0000 
      8 C8         -2.7254   -8.1118   -1.7493 C.3       1 UNK         0.0000 
      9 C9         -4.1465   -8.5522   -1.9404 C.2       1 UNK         0.0000 
     10 C10        -4.4361   -9.7882   -2.3715 C.2       1 UNK         0.0000 
     11 C11        -3.3495  -10.7756   -2.6785 C.3       1 UNK         0.0000 
     12 C12        -2.9493  -10.6471   -4.1184 C.3       1 UNK         0.0000 
     13 C13        -4.1361  -10.9215   -4.9936 C.3       1 UNK         0.0000 
     14 C14        -3.7359  -10.7930   -6.4335 C.3       1 UNK         0.0000 
     15 C15        -4.9228  -11.0673   -7.3088 C.3       1 UNK         0.0000 
     16 C16        -6.0094  -10.0799   -7.0018 C.3       1 UNK         0.0000 
     17 C17        -7.1962  -10.3543   -7.8770 C.3       1 UNK         0.0000 
     18 C18        -8.2828   -9.3668   -7.5700 C.2       1 UNK         0.0000 
     19 O19        -9.3944   -9.7422   -7.1687 O.co2     1 UNK         0.0000 
     20 O20        -8.0334   -8.1628   -7.7307 O.co2     1 UNK         0.0000 
     21 N21        -5.2041   -7.5911   -1.6416 N.pl3     1 UNK         0.0000 
     22 O22        -4.8514   -6.4842   -1.2528 O.co2     1 UNK         0.0000 
     23 O23        -6.3576   -7.9702   -1.8041 O.co2     1 UNK         0.0000 
     24 N24        -5.8193  -10.2168   -2.5575 N.pl3     1 UNK         0.0000 
     25 C25        -6.8099   -9.5639   -3.2425 C.ar      1 UNK         0.0000 
     26 C26        -7.9222  -10.3832   -3.1193 C.ar      1 UNK         0.0000 
     27 N27        -7.6531  -11.4700   -2.4104 N.2       1 UNK         0.0000 
     28 C28        -6.3875  -11.3650   -2.0751 C.ar      1 UNK         0.0000 
     29 C29        -9.2808  -10.1173   -3.6968 C.3       1 UNK         0.0000 
     30 C30       -10.2053  -11.2430   -3.3387 C.3       1 UNK         0.0000 
     31 C31       -11.5639  -10.9772   -3.9162 C.3       1 UNK         0.0000 
     32 O32       -11.4688  -10.8791   -5.2894 O.3       1 UNK         0.0000 
     33 N33       -10.3058  -11.3468   -1.8859 N.3       1 UNK         0.0000 
     34 H34         3.4316   -4.9247    4.6960 H         1 UNK         0.0000 
     35 H35         1.7270   -4.4270    4.8178 H         1 UNK         0.0000 
     36 H36         2.1947   -6.1016    5.1991 H         1 UNK         0.0000 
     37 H37         2.3880   -4.7743    2.4819 H         1 UNK         0.0000 
     38 H38         2.8557   -6.4489    2.8631 H         1 UNK         0.0000 
     39 H39         0.5583   -6.9285    3.5747 H         1 UNK         0.0000 
     40 H40         0.0906   -5.2539    3.1934 H         1 UNK         0.0000 
     41 H41         0.7516   -5.6012    0.8575 H         1 UNK         0.0000 
     42 H42         1.2193   -7.2758    1.2388 H         1 UNK         0.0000 
     43 H43        -1.0780   -7.7553    1.9503 H         1 UNK         0.0000 
     44 H44        -1.5457   -6.0808    1.5691 H         1 UNK         0.0000 
     45 H45        -0.8848   -6.4281   -0.7669 H         1 UNK         0.0000 
     46 H46        -0.4171   -8.1026   -0.3856 H         1 UNK         0.0000 
     47 H47        -2.7144   -8.5822    0.3260 H         1 UNK         0.0000 
     48 H48        -3.1821   -6.9077   -0.0553 H         1 UNK         0.0000 
     49 H49        -2.5211   -7.2549   -2.3913 H         1 UNK         0.0000 
     50 H50        -2.0534   -8.9295   -2.0100 H         1 UNK         0.0000 
     51 H51        -2.4870  -10.5762   -2.0425 H         1 UNK         0.0000 
     52 H52        -3.7132  -11.7859   -2.4913 H         1 UNK         0.0000 
     53 H53        -2.5856   -9.6368   -4.3056 H         1 UNK         0.0000 
     54 H54        -2.1597  -11.3647   -4.3415 H         1 UNK         0.0000 
     55 H55        -4.4998  -11.9318   -4.8064 H         1 UNK         0.0000 
     56 H56        -4.9257  -10.2039   -4.7706 H         1 UNK         0.0000 
     57 H57        -3.3722   -9.7826   -6.6208 H         1 UNK         0.0000 
     58 H58        -2.9463  -11.5105   -6.6566 H         1 UNK         0.0000 
     59 H59        -4.6320  -10.9739   -8.3551 H         1 UNK         0.0000 
     60 H60        -5.2865  -12.0777   -7.1216 H         1 UNK         0.0000 
     61 H61        -6.3002  -10.1733   -5.9555 H         1 UNK         0.0000 
     62 H62        -5.6457   -9.0695   -7.1890 H         1 UNK         0.0000 
     63 H63        -6.9054  -10.2609   -8.9234 H         1 UNK         0.0000 
     64 H64        -7.5599  -11.3646   -7.6898 H         1 UNK         0.0000 
     65 H65        -6.6423   -8.6140   -3.7361 H         1 UNK         0.0000 
     66 H66        -5.8003  -12.0648   -1.4893 H         1 UNK         0.0000 
     67 H67        -9.6713   -9.1837   -3.2920 H         1 UNK         0.0000 
     68 H68        -9.2057  -10.0399   -4.7814 H         1 UNK         0.0000 
     69 H69        -9.8147  -12.1767   -3.7435 H         1 UNK         0.0000 
     70 H70       -12.2357  -11.7952   -3.6560 H         1 UNK         0.0000 
     71 H71       -11.9544  -10.0435   -3.5114 H         1 UNK         0.0000 
     72 H72       -12.3325  -10.7015   -5.7612 H         1 UNK         0.0000 
     73 H73       -10.6677  -10.4818   -1.5103 H         1 UNK         0.0000 
     74 H74       -10.9273  -12.1054   -1.6443 H         1 UNK         0.0000 
@<TRIPOS>BOND
     1    1    2 1    
     2    1   34 1    
     3    1   35 1    
     4    1   36 1    
     5    2    3 1    
     6    2   37 1    
     7    2   38 1    
     8    3    4 1    
     9    3   39 1    
    10    3   40 1    
    11    4    5 1    
    12    4   41 1    
    13    4   42 1    
    14    5    6 1    
    15    5   43 1    
    16    5   44 1    
    17    6    7 1    
    18    6   45 1    
    19    6   46 1    
    20    7    8 1    
    21    7   47 1    
    22    7   48 1    
    23    8    9 1    
    24    8   49 1    
    25    8   50 1    
    26    9   10 2    
    27    9   21 1    
    28   10   11 1    
    29   10   24 1    
    30   11   12 1    
    31   11   51 1    
    32   11   52 1    
    33   12   13 1    
    34   12   53 1    
    35   12   54 1    
    36   13   14 1    
    37   13   55 1    
    38   13   56 1    
    39   14   15 1    
    40   14   57 1    
    41   14   58 1    
    42   15   16 1    
    43   15   59 1    
    44   15   60 1    
    45   16   17 1    
    46   16   61 1    
    47   16   62 1    
    48   17   18 1    
    49   17   63 1    
    50   17   64 1    
    51   18   19 2    
    52   18   20 1    
    53   21   22 2    
    54   21   23 1    
    55   24   25 ar   
    56   24   28 ar   
    57   25   26 ar   
    58   25   65 1    
    59   26   27 ar   
    60   26   29 1    
    61   27   28 ar   
    62   28   66 1    
    63   29   30 1    
    64   29   67 1    
    65   29   68 1    
    66   30   31 1    
    67   30   33 1    
    68   30   69 1    
    69   31   32 1    
    70   31   70 1    
    71   31   71 1    
    72   32   72 1    
    73   33   73 1    
    74   33   74 1    
@<TRIPOS>SUBSTRUCTURE
     1 UNK         1 GROUP             0       ****    0 ROOT    
