@<TRIPOS>MOLECULE
Structure5
59   58    1
SMALL
USER_CHARGES


@<TRIPOS>ATOM
      1 C1          3.4822   -7.7280   -0.6063 C.3       1 UNK         0.0000 
      2 C2          2.1448   -7.1092   -0.3262 C.3       1 UNK         0.0000 
      3 C3          1.1062   -8.1870   -0.2269 C.3       1 UNK         0.0000 
      4 C4         -0.2312   -7.5683    0.0532 C.3       1 UNK         0.0000 
      5 C5         -1.2698   -8.6461    0.1526 C.3       1 UNK         0.0000 
      6 C6         -2.6072   -8.0273    0.4326 C.3       1 UNK         0.0000 
      7 C7         -3.6457   -9.1051    0.5320 C.3       1 UNK         0.0000 
      8 C8         -4.9832   -8.4864    0.8120 C.3       1 UNK         0.0000 
      9 C9         -5.3424   -7.5470   -0.3009 C.2       1 UNK         0.0000 
     10 C10        -6.0232   -7.9735   -1.3741 C.2       1 UNK         0.0000 
     11 C11        -6.4505   -9.4058   -1.5011 C.3       1 UNK         0.0000 
     12 C12        -6.5000   -9.7861   -2.9512 C.3       1 UNK         0.0000 
     13 C13        -5.1398   -9.6142   -3.5599 C.3       1 UNK         0.0000 
     14 C14        -5.1893   -9.9945   -5.0101 C.3       1 UNK         0.0000 
     15 C15        -3.8292   -9.8227   -5.6187 C.3       1 UNK         0.0000 
     16 C16        -3.8787  -10.2030   -7.0689 C.3       1 UNK         0.0000 
     17 C17        -4.8610   -9.3229   -7.7833 C.3       1 UNK         0.0000 
     18 C18        -4.9105   -9.7031   -9.2335 C.2       1 UNK         0.0000 
     19 O19        -5.7065  -10.5609   -9.6436 O.co2     1 UNK         0.0000 
     20 O20        -4.1294   -9.1319  -10.0089 O.co2     1 UNK         0.0000 
     21 N21        -4.9265   -6.1529   -0.1772 N.pl3     1 UNK         0.0000 
     22 O22        -5.2295   -5.4021   -1.0965 O.co2     1 UNK         0.0000 
     23 O23        -4.3085   -5.8483    0.8357 O.co2     1 UNK         0.0000 
     24 S24        -6.4495   -6.8588   -2.6947 S.3       1 UNK         0.0000 
     25 C25        -7.9965   -6.4342   -1.9235 C.3       1 UNK         0.0000 
     26 H26         4.2369   -6.9448   -0.6785 H         1 UNK         0.0000 
     27 H27         3.7432   -8.4106    0.2024 H         1 UNK         0.0000 
     28 H28         3.4384   -8.2781   -1.5463 H         1 UNK         0.0000 
     29 H29         2.1886   -6.5591    0.6137 H         1 UNK         0.0000 
     30 H30         1.8837   -6.4266   -1.1349 H         1 UNK         0.0000 
     31 H31         1.0624   -8.7371   -1.1668 H         1 UNK         0.0000 
     32 H32         1.3673   -8.8696    0.5818 H         1 UNK         0.0000 
     33 H33        -0.1874   -7.0182    0.9931 H         1 UNK         0.0000 
     34 H34        -0.4922   -6.8857   -0.7555 H         1 UNK         0.0000 
     35 H35        -1.3136   -9.1962   -0.7874 H         1 UNK         0.0000 
     36 H36        -1.0087   -9.3287    0.9612 H         1 UNK         0.0000 
     37 H37        -2.5634   -7.4772    1.3726 H         1 UNK         0.0000 
     38 H38        -2.8682   -7.3447   -0.3761 H         1 UNK         0.0000 
     39 H39        -3.6896   -9.6552   -0.4080 H         1 UNK         0.0000 
     40 H40        -3.3847   -9.7877    1.3406 H         1 UNK         0.0000 
     41 H41        -5.7379   -9.2696    0.8842 H         1 UNK         0.0000 
     42 H42        -4.9394   -7.9363    1.7520 H         1 UNK         0.0000 
     43 H43        -5.7367  -10.0453   -0.9819 H         1 UNK         0.0000 
     44 H44        -7.4389   -9.5306   -1.0588 H         1 UNK         0.0000 
     45 H45        -6.8105  -10.8268   -3.0436 H         1 UNK         0.0000 
     46 H46        -7.2138   -9.1465   -3.4704 H         1 UNK         0.0000 
     47 H47        -4.8293   -8.5735   -3.4676 H         1 UNK         0.0000 
     48 H48        -4.4260  -10.2538   -3.0407 H         1 UNK         0.0000 
     49 H49        -5.4998  -11.0353   -5.1024 H         1 UNK         0.0000 
     50 H50        -5.9031   -9.3550   -5.5292 H         1 UNK         0.0000 
     51 H51        -3.5187   -8.7819   -5.5264 H         1 UNK         0.0000 
     52 H52        -3.1154  -10.4622   -5.0995 H         1 UNK         0.0000 
     53 H53        -2.8903  -10.0781   -7.5112 H         1 UNK         0.0000 
     54 H54        -4.1892  -11.2437   -7.1612 H         1 UNK         0.0000 
     55 H55        -5.8494   -9.4477   -7.3410 H         1 UNK         0.0000 
     56 H56        -4.5505   -8.2821   -7.6910 H         1 UNK         0.0000 
     57 H57        -8.5263   -5.7123   -2.5451 H         1 UNK         0.0000 
     58 H58        -8.6046   -7.3317   -1.8105 H         1 UNK         0.0000 
     59 H59        -7.8061   -5.9984   -0.9427 H         1 UNK         0.0000 
@<TRIPOS>BOND
     1    1    2 1    
     2    1   26 1    
     3    1   27 1    
     4    1   28 1    
     5    2    3 1    
     6    2   29 1    
     7    2   30 1    
     8    3    4 1    
     9    3   31 1    
    10    3   32 1    
    11    4    5 1    
    12    4   33 1    
    13    4   34 1    
    14    5    6 1    
    15    5   35 1    
    16    5   36 1    
    17    6    7 1    
    18    6   37 1    
    19    6   38 1    
    20    7    8 1    
    21    7   39 1    
    22    7   40 1    
    23    8    9 1    
    24    8   41 1    
    25    8   42 1    
    26    9   10 2    
    27    9   21 1    
    28   10   11 1    
    29   10   24 1    
    30   11   12 1    
    31   11   43 1    
    32   11   44 1    
    33   12   13 1    
    34   12   45 1    
    35   12   46 1    
    36   13   14 1    
    37   13   47 1    
    38   13   48 1    
    39   14   15 1    
    40   14   49 1    
    41   14   50 1    
    42   15   16 1    
    43   15   51 1    
    44   15   52 1    
    45   16   17 1    
    46   16   53 1    
    47   16   54 1    
    48   17   18 1    
    49   17   55 1    
    50   17   56 1    
    51   18   19 2    
    52   18   20 1    
    53   21   22 1    
    54   21   23 2    
    55   24   25 1    
    56   25   57 1    
    57   25   58 1    
    58   25   59 1    
@<TRIPOS>SUBSTRUCTURE
     1 UNK         1 GROUP             0       ****    0 ROOT    
