@<TRIPOS>MOLECULE
9NO2OA_NOOH
59   58    1
SMALL
USER_CHARGES


@<TRIPOS>ATOM
      1 C1          0.4072   -0.6903    1.8752 C.3       1 UNK         0.0000 
      2 C2         -0.6424   -1.5911    1.2947 C.3       1 UNK         0.0000 
      3 C3         -0.2704   -3.0217    1.5499 C.3       1 UNK         0.0000 
      4 C4         -1.3200   -3.9224    0.9695 C.3       1 UNK         0.0000 
      5 C5         -0.9480   -5.3530    1.2247 C.3       1 UNK         0.0000 
      6 C6         -1.9976   -6.2538    0.6443 C.3       1 UNK         0.0000 
      7 C7         -2.0963   -6.0188   -0.8339 C.3       1 UNK         0.0000 
      8 C8         -3.1459   -6.9196   -1.4144 C.3       1 UNK         0.0000 
      9 C9         -4.4689   -6.6248   -0.7718 C.2       1 UNK         0.0000 
     10 C10        -5.3969   -7.5815   -0.6278 C.2       1 UNK         0.0000 
     11 C11        -5.1461   -8.9816   -1.1039 C.3       1 UNK         0.0000 
     12 C12        -4.5228   -9.7815    0.0014 C.3       1 UNK         0.0000 
     13 C13        -4.2720  -11.1816   -0.4748 C.3       1 UNK         0.0000 
     14 C14        -3.3449  -11.1504   -1.6535 C.3       1 UNK         0.0000 
     15 C15        -3.0941  -12.5505   -2.1297 C.3       1 UNK         0.0000 
     16 C16        -2.1669  -12.5192   -3.3084 C.3       1 UNK         0.0000 
     17 C17        -1.9161  -13.9193   -3.7846 C.3       1 UNK         0.0000 
     18 C18        -0.9890  -13.8881   -4.9633 C.2       1 UNK         0.0000 
     19 O19        -0.6370  -14.9339   -5.5289 O.co2     1 UNK         0.0000 
     20 O20        -0.5859  -12.7823   -5.3538 O.co2     1 UNK         0.0000 
     21 N21        -6.6845   -7.2945   -0.0023 N.pl3     1 UNK         0.0000 
     22 O22        -6.8696   -6.1453    0.3796 O.co2     1 UNK         0.0000 
     23 O23        -7.4744   -8.2263    0.0893 O.co2     1 UNK         0.0000 
     24 S24        -4.7665   -4.9633   -0.2068 S.3       1 UNK         0.0000 
     25 C25        -5.4560   -4.4841   -1.7763 C.3       1 UNK         0.0000 
     26 H26         0.1369    0.3492    1.6897 H         1 UNK         0.0000 
     27 H27         0.4789   -0.8610    2.9493 H         1 UNK         0.0000 
     28 H28         1.3685   -0.9046    1.4083 H         1 UNK         0.0000 
     29 H29        -1.6037   -1.3768    1.7617 H         1 UNK         0.0000 
     30 H30        -0.7141   -1.4204    0.2206 H         1 UNK         0.0000 
     31 H31         0.6909   -3.2359    1.0830 H         1 UNK         0.0000 
     32 H32        -0.1987   -3.1924    2.6241 H         1 UNK         0.0000 
     33 H33        -2.2813   -3.7082    1.4364 H         1 UNK         0.0000 
     34 H34        -1.3917   -3.7517   -0.1047 H         1 UNK         0.0000 
     35 H35         0.0134   -5.5672    0.7578 H         1 UNK         0.0000 
     36 H36        -0.8763   -5.5237    2.2989 H         1 UNK         0.0000 
     37 H37        -1.7273   -7.2933    0.8297 H         1 UNK         0.0000 
     38 H38        -2.9589   -6.0395    1.1112 H         1 UNK         0.0000 
     39 H39        -2.3666   -4.9793   -1.0194 H         1 UNK         0.0000 
     40 H40        -1.1350   -6.2331   -1.3009 H         1 UNK         0.0000 
     41 H41        -3.2176   -6.7489   -2.4885 H         1 UNK         0.0000 
     42 H42        -2.8756   -7.9592   -1.2289 H         1 UNK         0.0000 
     43 H43        -6.0905   -9.4405   -1.3966 H         1 UNK         0.0000 
     44 H44        -4.4724   -8.9589   -1.9605 H         1 UNK         0.0000 
     45 H45        -3.5784   -9.3226    0.2940 H         1 UNK         0.0000 
     46 H46        -5.1965   -9.8042    0.8579 H         1 UNK         0.0000 
     47 H47        -3.8191  -11.7629    0.3284 H         1 UNK         0.0000 
     48 H48        -5.2164  -11.6405   -0.7674 H         1 UNK         0.0000 
     49 H49        -3.7978  -10.5691   -2.4567 H         1 UNK         0.0000 
     50 H50        -2.4005  -10.6915   -1.3609 H         1 UNK         0.0000 
     51 H51        -2.6411  -13.1318   -1.3265 H         1 UNK         0.0000 
     52 H52        -4.0385  -13.0094   -2.4223 H         1 UNK         0.0000 
     53 H53        -2.6198  -11.9379   -4.1116 H         1 UNK         0.0000 
     54 H54        -1.2225  -12.0603   -3.0158 H         1 UNK         0.0000 
     55 H55        -1.4632  -14.5006   -2.9814 H         1 UNK         0.0000 
     56 H56        -2.8605  -14.3782   -4.0772 H         1 UNK         0.0000 
     57 H57        -5.7543   -3.4365   -1.7374 H         1 UNK         0.0000 
     58 H58        -4.7090   -4.6205   -2.5582 H         1 UNK         0.0000 
     59 H59        -6.3271   -5.1021   -1.9943 H         1 UNK         0.0000 
@<TRIPOS>BOND
     1    1    2 1    
     2    1   26 1    
     3    1   27 1    
     4    1   28 1    
     5    2    3 1    
     6    2   29 1    
     7    2   30 1    
     8    3    4 1    
     9    3   31 1    
    10    3   32 1    
    11    4    5 1    
    12    4   33 1    
    13    4   34 1    
    14    5    6 1    
    15    5   35 1    
    16    5   36 1    
    17    6    7 1    
    18    6   37 1    
    19    6   38 1    
    20    7    8 1    
    21    7   39 1    
    22    7   40 1    
    23    8    9 1    
    24    8   41 1    
    25    8   42 1    
    26    9   10 2    
    27    9   24 1    
    28   10   11 1    
    29   10   21 1    
    30   11   12 1    
    31   11   43 1    
    32   11   44 1    
    33   12   13 1    
    34   12   45 1    
    35   12   46 1    
    36   13   14 1    
    37   13   47 1    
    38   13   48 1    
    39   14   15 1    
    40   14   49 1    
    41   14   50 1    
    42   15   16 1    
    43   15   51 1    
    44   15   52 1    
    45   16   17 1    
    46   16   53 1    
    47   16   54 1    
    48   17   18 1    
    49   17   55 1    
    50   17   56 1    
    51   18   19 2    
    52   18   20 1    
    53   21   22 1    
    54   21   23 2    
    55   24   25 1    
    56   25   57 1    
    57   25   58 1    
    58   25   59 1    
@<TRIPOS>SUBSTRUCTURE
     1 UNK         1 GROUP             0       ****    0 ROOT    
