@<TRIPOS>MOLECULE
9NO2OA_his
74   74    1
SMALL
USER_CHARGES


@<TRIPOS>ATOM
      1 C1          0.2096    0.6498    4.0251 C.3       1 UNK         0.0000 
      2 C2          0.4912   -0.6288    3.2932 C.3       1 UNK         0.0000 
      3 C3         -0.7999   -1.2308    2.8235 C.3       1 UNK         0.0000 
      4 C4         -0.5183   -2.5095    2.0916 C.3       1 UNK         0.0000 
      5 C5         -1.8094   -3.1115    1.6219 C.3       1 UNK         0.0000 
      6 C6         -1.5279   -4.3902    0.8900 C.3       1 UNK         0.0000 
      7 C7         -2.8190   -4.9922    0.4203 C.3       1 UNK         0.0000 
      8 C8         -2.5374   -6.2709   -0.3117 C.3       1 UNK         0.0000 
      9 C9         -3.8285   -6.8729   -0.7813 C.2       1 UNK         0.0000 
     10 C10        -4.2102   -8.0932   -0.3783 C.2       1 UNK         0.0000 
     11 C11        -3.3600   -8.9010    0.5569 C.3       1 UNK         0.0000 
     12 C12        -2.4068   -9.7447   -0.2364 C.3       1 UNK         0.0000 
     13 C13        -3.1808  -10.6668   -1.1312 C.3       1 UNK         0.0000 
     14 C14        -2.2275  -11.5106   -1.9245 C.3       1 UNK         0.0000 
     15 C15        -3.0016  -12.4327   -2.8193 C.3       1 UNK         0.0000 
     16 C16        -3.8517  -11.6249   -3.7545 C.3       1 UNK         0.0000 
     17 C17        -4.6258  -12.5470   -4.6493 C.3       1 UNK         0.0000 
     18 C18        -5.4759  -11.7392   -5.5845 C.2       1 UNK         0.0000 
     19 O19        -6.7102  -11.8577   -5.5916 O.co2     1 UNK         0.0000 
     20 O20        -4.9043  -10.9491   -6.3504 O.co2     1 UNK         0.0000 
     21 N21        -5.4669   -8.6792   -0.8355 N.pl3     1 UNK         0.0000 
     22 O22        -6.1464   -8.0036   -1.5986 O.co2     1 UNK         0.0000 
     23 O23        -5.7388   -9.7985   -0.4185 O.co2     1 UNK         0.0000 
     24 N24        -4.6560   -6.0866   -1.6916 N.pl3     1 UNK         0.0000 
     25 C25        -5.9940   -5.8150   -1.5785 C.ar      1 UNK         0.0000 
     26 C26        -6.2909   -5.0386   -2.6888 C.ar      1 UNK         0.0000 
     27 N27        -5.2213   -4.8363   -3.4444 N.2       1 UNK         0.0000 
     28 C28        -4.2411   -5.4685   -2.8404 C.ar      1 UNK         0.0000 
     29 C29        -7.6370   -4.4749   -3.0354 C.3       1 UNK         0.0000 
     30 C30        -7.5385   -3.6946   -4.3127 C.3       1 UNK         0.0000 
     31 C31        -8.8846   -3.1309   -4.6594 C.3       1 UNK         0.0000 
     32 O32        -9.3104   -2.2991   -3.6439 O.3       1 UNK         0.0000 
     33 N33        -7.0880   -4.5746   -5.3871 N.3       1 UNK         0.0000 
     34 H34         1.1478    1.0873    4.3664 H         1 UNK         0.0000 
     35 H35        -0.2947    1.3476    3.3567 H         1 UNK         0.0000 
     36 H36        -0.4289    0.4437    4.8842 H         1 UNK         0.0000 
     37 H37         1.1297   -0.4227    2.4342 H         1 UNK         0.0000 
     38 H38         0.9955   -1.3266    3.9616 H         1 UNK         0.0000 
     39 H39        -1.4384   -1.4370    3.6826 H         1 UNK         0.0000 
     40 H40        -1.3043   -0.5330    2.1551 H         1 UNK         0.0000 
     41 H41         0.1202   -2.3034    1.2325 H         1 UNK         0.0000 
     42 H42        -0.0140   -3.2073    2.7600 H         1 UNK         0.0000 
     43 H43        -2.4479   -3.3176    2.4809 H         1 UNK         0.0000 
     44 H44        -2.3138   -2.4137    0.9535 H         1 UNK         0.0000 
     45 H45        -0.8894   -4.1841    0.0309 H         1 UNK         0.0000 
     46 H46        -1.0235   -5.0880    1.5584 H         1 UNK         0.0000 
     47 H47        -3.4575   -5.1983    1.2793 H         1 UNK         0.0000 
     48 H48        -3.3233   -4.2944   -0.2482 H         1 UNK         0.0000 
     49 H49        -1.8989   -6.0647   -1.1707 H         1 UNK         0.0000 
     50 H50        -2.0331   -6.9687    0.3568 H         1 UNK         0.0000 
     51 H51        -2.7975   -8.2309    1.2071 H         1 UNK         0.0000 
     52 H52        -3.9974   -9.5450    1.1628 H         1 UNK         0.0000 
     53 H53        -1.7694   -9.1008   -0.8424 H         1 UNK         0.0000 
     54 H54        -1.7890  -10.3317    0.4432 H         1 UNK         0.0000 
     55 H55        -3.8182  -11.3108   -0.5253 H         1 UNK         0.0000 
     56 H56        -3.7986  -10.0798   -1.8108 H         1 UNK         0.0000 
     57 H57        -1.5901  -10.8666   -2.5305 H         1 UNK         0.0000 
     58 H58        -1.6098  -12.0976   -1.2449 H         1 UNK         0.0000 
     59 H59        -2.3089  -13.0458   -3.3958 H         1 UNK         0.0000 
     60 H60        -3.6390  -13.0766   -2.2134 H         1 UNK         0.0000 
     61 H61        -4.5444  -11.0118   -3.1780 H         1 UNK         0.0000 
     62 H62        -3.2144  -10.9809   -4.3605 H         1 UNK         0.0000 
     63 H63        -3.9331  -13.1601   -5.2258 H         1 UNK         0.0000 
     64 H64        -5.2632  -13.1910   -4.0434 H         1 UNK         0.0000 
     65 H65        -6.5910   -6.1829   -0.7525 H         1 UNK         0.0000 
     66 H66        -3.2052   -5.5345   -3.1568 H         1 UNK         0.0000 
     67 H67        -8.3505   -5.2893   -3.1613 H         1 UNK         0.0000 
     68 H68        -7.9733   -3.8179   -2.2333 H         1 UNK         0.0000 
     69 H69        -6.8250   -2.8803   -4.1868 H         1 UNK         0.0000 
     70 H70        -8.8130   -2.5639   -5.5875 H         1 UNK         0.0000 
     71 H71        -9.5981   -3.9453   -4.7852 H         1 UNK         0.0000 
     72 H72       -10.2046   -1.8762   -3.7908 H         1 UNK         0.0000 
     73 H73        -7.7489   -5.3294   -5.5041 H         1 UNK         0.0000 
     74 H74        -7.0204   -4.0494   -6.2471 H         1 UNK         0.0000 
@<TRIPOS>BOND
     1    1    2 1    
     2    1   34 1    
     3    1   35 1    
     4    1   36 1    
     5    2    3 1    
     6    2   37 1    
     7    2   38 1    
     8    3    4 1    
     9    3   39 1    
    10    3   40 1    
    11    4    5 1    
    12    4   41 1    
    13    4   42 1    
    14    5    6 1    
    15    5   43 1    
    16    5   44 1    
    17    6    7 1    
    18    6   45 1    
    19    6   46 1    
    20    7    8 1    
    21    7   47 1    
    22    7   48 1    
    23    8    9 1    
    24    8   49 1    
    25    8   50 1    
    26    9   10 2    
    27    9   24 1    
    28   10   11 1    
    29   10   21 1    
    30   11   12 1    
    31   11   51 1    
    32   11   52 1    
    33   12   13 1    
    34   12   53 1    
    35   12   54 1    
    36   13   14 1    
    37   13   55 1    
    38   13   56 1    
    39   14   15 1    
    40   14   57 1    
    41   14   58 1    
    42   15   16 1    
    43   15   59 1    
    44   15   60 1    
    45   16   17 1    
    46   16   61 1    
    47   16   62 1    
    48   17   18 1    
    49   17   63 1    
    50   17   64 1    
    51   18   19 2    
    52   18   20 1    
    53   21   22 1    
    54   21   23 2    
    55   24   25 ar   
    56   24   28 ar   
    57   25   26 ar   
    58   25   65 1    
    59   26   27 ar   
    60   26   29 1    
    61   27   28 ar   
    62   28   66 1    
    63   29   30 1    
    64   29   67 1    
    65   29   68 1    
    66   30   31 1    
    67   30   33 1    
    68   30   69 1    
    69   31   32 1    
    70   31   70 1    
    71   31   71 1    
    72   32   72 1    
    73   33   73 1    
    74   33   74 1    
@<TRIPOS>SUBSTRUCTURE
     1 UNK         1 GROUP             0       ****    0 ROOT    
