@<TRIPOS>MOLECULE
Structure6
55   55    1
SMALL
USER_CHARGES


@<TRIPOS>ATOM
      1 C1         16.4423   61.8170   12.9491 C.3       1 UNK         0.0000 
      2 S2         17.4879   62.7007   12.9425 S.3       1 UNK         0.0000 
      3 C3         11.9625   65.3886   10.9876 C.3       1 UNK         0.0000 
      4 C4         13.1201   66.1318   11.5857 C.3       1 UNK         0.0000 
      5 C5         14.2197   65.1652   11.9124 C.3       1 UNK         0.0000 
      6 C6         15.3772   65.9084   12.5106 C.3       1 UNK         0.0000 
      7 C7         16.4768   64.9418   12.8373 C.3       1 UNK         0.0000 
      8 C8         17.6344   65.6849   13.4354 C.2       1 UNK         0.0000 
      9 C9         18.7479   65.0420   13.8148 C.2       1 UNK         0.0000 
     10 C10        18.8768   63.5562   13.6549 C.2       1 UNK         0.0000 
     11 C11        19.9965   62.9116   14.0367 C.2       1 UNK         0.0000 
     12 C12        20.1797   61.4731   13.9067 C.2       1 UNK         0.0000 
     13 O13        19.3819   60.6522   13.4498 O.2       1 UNK         0.0000 
     14 C14        21.4987   61.1782   14.4234 C.2       1 UNK         0.0000 
     15 C15        22.1170   62.2938   14.8466 C.2       1 UNK         0.0000 
     16 C16        21.2408   63.5022   14.6496 C.3       1 UNK         0.0000 
     17 C17        20.9506   64.1901   15.9505 C.3       1 UNK         0.0000 
     18 C18        21.4060   65.6173   15.8739 C.2       1 UNK         0.0000 
     19 C19        20.7887   66.5793   16.5744 C.2       1 UNK         0.0000 
     20 C20        19.6201   66.2636   17.4603 C.3       1 UNK         0.0000 
     21 C21        20.1120   65.9352   18.8388 C.3       1 UNK         0.0000 
     22 C22        18.9435   65.6195   19.7246 C.3       1 UNK         0.0000 
     23 C23        18.1966   64.4442   19.1671 C.2       1 UNK         0.0000 
     24 O24        18.6259   63.3124   18.9735 O.2       1 UNK         0.0000 
     25 O25        16.9201   64.8132   18.8907 O.3       1 UNK         0.0000 
     26 H26        15.6744   61.6830   13.7092 H         1 UNK         0.0000 
     27 H27        17.0282   61.4124   13.0769 H         1 UNK         0.0000 
     28 H28        16.0666   61.5149   12.5034 H         1 UNK         0.0000 
     29 H29        11.1635   66.0910   10.7501 H         1 UNK         0.0000 
     30 H30        12.2859   64.8847   10.0767 H         1 UNK         0.0000 
     31 H31        11.5970   64.6502   11.7012 H         1 UNK         0.0000 
     32 H32        13.4856   66.8702   10.8721 H         1 UNK         0.0000 
     33 H33        12.7968   66.6357   12.4965 H         1 UNK         0.0000 
     34 H34        13.8542   64.4268   12.6260 H         1 UNK         0.0000 
     35 H35        14.5430   64.6613   11.0016 H         1 UNK         0.0000 
     36 H36        15.7427   66.6468   11.7970 H         1 UNK         0.0000 
     37 H37        15.0539   66.4123   13.4214 H         1 UNK         0.0000 
     38 H38        16.1113   64.2034   13.5509 H         1 UNK         0.0000 
     39 H39        16.8002   64.4379   11.9265 H         1 UNK         0.0000 
     40 H40        17.5415   66.7551   13.5506 H         1 UNK         0.0000 
     41 H41        19.5816   65.5772   14.2456 H         1 UNK         0.0000 
     42 H42        21.8807   60.1683   14.4396 H         1 UNK         0.0000 
     43 H43        23.1087   62.3606   15.2768 H         1 UNK         0.0000 
     44 H44        21.7106   64.2347   13.9905 H         1 UNK         0.0000 
     45 H45        19.8787   64.1608   16.1459 H         1 UNK         0.0000 
     46 H46        21.4809   63.6823   16.7562 H         1 UNK         0.0000 
     47 H47        22.2476   65.8447   15.2359 H         1 UNK         0.0000 
     48 H48        21.1166   67.6071   16.5192 H         1 UNK         0.0000 
     49 H49        18.9563   67.1268   17.5074 H         1 UNK         0.0000 
     50 H50        19.0774   65.4095   17.0552 H         1 UNK         0.0000 
     51 H51        20.7759   65.0720   18.7916 H         1 UNK         0.0000 
     52 H52        20.6548   66.7893   19.2439 H         1 UNK         0.0000 
     53 H53        19.3009   65.3809   20.7263 H         1 UNK         0.0000 
     54 H54        18.2796   66.4827   19.7718 H         1 UNK         0.0000 
     55 H55        16.4616   64.0663   18.5412 H         1 UNK         0.0000 
@<TRIPOS>BOND
     1    1    2 1    
     2    1   26 1    
     3    1   27 1    
     4    1   28 1    
     5    2   10 1    
     6    3    4 1    
     7    3   29 1    
     8    3   30 1    
     9    3   31 1    
    10    4    5 1    
    11    4   32 1    
    12    4   33 1    
    13    5    6 1    
    14    5   34 1    
    15    5   35 1    
    16    6    7 1    
    17    6   36 1    
    18    6   37 1    
    19    7    8 1    
    20    7   38 1    
    21    7   39 1    
    22    8    9 2    
    23    8   40 1    
    24    9   10 1    
    25    9   41 1    
    26   10   11 2    
    27   11   12 1    
    28   11   16 1    
    29   12   13 2    
    30   12   14 1    
    31   14   15 2    
    32   14   42 1    
    33   15   16 1    
    34   15   43 1    
    35   16   17 1    
    36   16   44 1    
    37   17   18 1    
    38   17   45 1    
    39   17   46 1    
    40   18   19 2    
    41   18   47 1    
    42   19   20 1    
    43   19   48 1    
    44   20   21 1    
    45   20   49 1    
    46   20   50 1    
    47   21   22 1    
    48   21   51 1    
    49   21   52 1    
    50   22   23 1    
    51   22   53 1    
    52   22   54 1    
    53   23   24 2    
    54   23   25 1    
    55   25   55 1    
@<TRIPOS>SUBSTRUCTURE
     1 UNK         1 GROUP             0       ****    0 ROOT    
